// Generated for: spectre
// Generated on: Apr 10 20:40:14 2023
// Design library name: TransitionSimu_MISModel
// Design cell name: MISModel_TransitionSimu_230410
// Design view name: schematic
simulator lang=spectre
global 0
