// Generated for: spectre
// Generated on: Apr 15 20:36:38 2023
// Design library name: TransitionSimu_MISModel
// Design cell name: MISModel_TransitionSimu_230410_C
// Design view name: schematic
simulator lang=spectre
global 0
