simulator lang=spectre
include "nch.scs"
include "pch.scs"
